Result/ieee14withsolar.txt
 PTI INTERACTIVE POWER SYSTEM SIMULATOR--PSS(R)E UniversiSUN, JUL 26 2026  12:44
                                                                          RATING   %MVA FOR TRANSFORMERS
                                                                           SET A   % I  FOR NON-TRANSFORMER BRANCHES

 BUS      1 BUS 1       69.000 CKT     MW     MVAR     MVA   % 1.0000PU    0.00  X--- LOSSES ---X X---- AREA -----X X---- ZONE -----X      1
  FROM GENERATION                    217.5   -25.8R  219.1 219 69.000KV               MW     MVAR    1                 1
  TO      2 BUS 2       69.000  1    147.7   -28.5   150.4                           4.36   13.30    1                 1
  TO      5 BUS 5       69.000  1     69.9     2.7    69.9                           2.65   10.95    1                 1

 BUS      2 BUS 2       69.000 CKT     MW     MVAR     MVA   % 0.9910PU   -5.35  X--- LOSSES ---X X---- AREA -----X X---- ZONE -----X      2
  FROM GENERATION                     40.0    50.0H   64.0  64 68.380KV               MW     MVAR    1                 1
  TO LOAD-PQ                          21.7    12.7    25.1
  TO      1 BUS 1       69.000  1   -143.3    36.6   147.9                           4.36   13.30    1                 1
  TO      3 BUS 3       69.000  1     72.1    -2.1    72.1                           2.49   10.48    1                 1
  TO      4 BUS 4       69.000  1     51.6    -0.3    51.6                           1.58    4.79    1                 1
  TO      5 BUS 5       69.000  1     37.9     3.1    38.0                           0.85    2.58    1                 1

 BUS      3 BUS 3       69.000 CKT     MW     MVAR     MVA   % 0.9675PU  -13.91  X--- LOSSES ---X X---- AREA -----X X---- ZONE -----X      3
  FROM GENERATION                      0.0    40.0H   40.0  40 66.759KV               MW     MVAR    1                 1
  TO LOAD-PQ                          94.2    19.0    96.1
  TO      2 BUS 2       69.000  1    -69.6     8.4    70.1                           2.49   10.48    1                 1
  TO      4 BUS 4       69.000  1    -24.6    12.6    27.6                           0.56    1.42    1                 1

 BUS      4 BUS 4       69.000 CKT     MW     MVAR     MVA   % 0.9626PU  -10.78  X--- LOSSES ---X X---- AREA -----X X---- ZONE -----X      4
                                                               66.422KV               MW     MVAR    1                 1
  TO LOAD-PQ                          47.8    -3.9    48.0
  TO      2 BUS 2       69.000  1    -50.0     1.8    50.1                           1.58    4.79    1                 1
  TO      3 BUS 3       69.000  1     25.1   -12.4    28.0                           0.56    1.42    1                 1
  TO      5 BUS 5       69.000  1    -56.9    18.3    59.7                           0.51    1.62    1                 1
  TO      7 BUS 7       13.800  1     21.5    -3.9    21.9     0.9780LK              0.00    1.03    1                 1
  TO      9 BUS 9       13.800  1     12.4     0.1    12.4     0.9690LK              0.00    0.87    1                 1

 BUS      5 BUS 5       69.000 CKT     MW     MVAR     MVA   % 0.9629PU   -9.14  X--- LOSSES ---X X---- AREA -----X X---- ZONE -----X      5
                                                               66.439KV               MW     MVAR    1                 1
  TO LOAD-PQ                           7.6     1.6     7.8
  TO      1 BUS 1       69.000  1    -67.2     3.5    67.3                           2.65   10.95    1                 1
  TO      2 BUS 2       69.000  1    -37.1    -3.8    37.3                           0.85    2.58    1                 1
  TO      4 BUS 4       69.000  1     57.4   -16.7    59.8                           0.51    1.62    1                 1
  TO      6 BUS 6       13.800  1     39.3    15.5    42.2     0.9320LK              0.00    4.21    1                 1

 BUS      6 BUS 6       13.800 CKT     MW     MVAR     MVA   % 1.0000PU  -14.65  X--- LOSSES ---X X---- AREA -----X X---- ZONE -----X      6
  FROM GENERATION                      0.0     8.0R    8.0   8 13.800KV               MW     MVAR    1                 1
  TO LOAD-PQ                          11.2     7.5    13.5
  TO      5 BUS 5       69.000  1    -39.3   -11.3    40.9     1.0000UN              0.00    4.21    1                 1
  TO     11 BUS 11      13.800  1      4.5     2.5     5.1                           0.02    0.05    1                 1
  TO     12 BUS 12      13.800  1      7.4     2.5     7.8                           0.07    0.16    1                 1
  TO     13 BUS 13      13.800  1     16.3     6.7    17.6                           0.20    0.40    1                 1

 BUS      7 BUS 7       13.800 CKT     MW     MVAR     MVA   % 0.9937PU  -13.41  X--- LOSSES ---X X---- AREA -----X X---- ZONE -----X      7
                                                               13.713KV               MW     MVAR    1                 1
  TO      4 BUS 4       69.000  1    -21.5     5.0    22.1     1.0000UN              0.00    1.03    1                 1
  TO      8 BUS 8       18.000  1     -0.0    -3.5     3.5     1.0000LK              0.00    0.02    1                 1
  TO      9 BUS 9       13.800  1     21.5    -1.4    21.6     1.0000LK              0.00    0.52    1                 1

 BUS      8 BUS 8       18.000 CKT     MW     MVAR     MVA   % 1.0000PU  -13.41  X--- LOSSES ---X X---- AREA -----X X---- ZONE -----X      8
  FROM GENERATION                      0.0     3.6R    3.6   4 18.000KV               MW     MVAR    1                 1
  TO      7 BUS 7       13.800  1      0.0     3.6     3.6     1.0000UN              0.00    0.02    1                 1

 BUS      9 BUS 9       13.800 CKT     MW     MVAR     MVA   % 0.9956PU  -14.79  X--- LOSSES ---X X---- AREA -----X X---- ZONE -----X      9
                                                               13.739KV               MW     MVAR    1                 1
  TO LOAD-PQ                          29.5    16.6    33.8
  TO SHUNT                             0.0   -18.8    18.8
  TO      4 BUS 4       69.000  1    -12.4     0.8    12.5     1.0000UN              0.00    0.87    1                 1
  TO      7 BUS 7       13.800  1    -21.5     1.9    21.6     1.0000UN              0.00    0.52    1                 1
  TO     10 BUS 10      13.800  1      8.1     5.2     9.6                           0.03    0.08    1                 1
  TO     14 BUS 14      13.800  1     11.4     4.3    12.1                           0.19    0.40    1                 1
  TO     15 SOLAR       13.800  1    -15.0   -10.0    18.0                           0.00    0.03    1                 1

 BUS     10 BUS 10      13.800 CKT     MW     MVAR     MVA   % 0.9886PU  -15.09  X--- LOSSES ---X X---- AREA -----X X---- ZONE -----X     10
                                                               13.643KV               MW     MVAR    1                 1
  TO LOAD-PQ                           9.0     5.8    10.7
  TO      9 BUS 9       13.800  1     -8.1    -5.1     9.6                           0.03    0.08    1                 1
  TO     11 BUS 11      13.800  1     -0.9    -0.7     1.2                           0.00    0.00    1                 1

 BUS     11 BUS 11      13.800 CKT     MW     MVAR     MVA   % 0.9907PU  -15.02  X--- LOSSES ---X X---- AREA -----X X---- ZONE -----X     11
                                                               13.672KV               MW     MVAR    1                 1
  TO LOAD-PQ                           3.5     1.8     3.9
  TO      6 BUS 6       13.800  1     -4.4    -2.5     5.1                           0.02    0.05    1                 1
  TO     10 BUS 10      13.800  1      0.9     0.7     1.2                           0.00    0.00    1                 1

 BUS     12 BUS 12      13.800 CKT     MW     MVAR     MVA   % 0.9848PU  -15.57  X--- LOSSES ---X X---- AREA -----X X---- ZONE -----X     12
                                                               13.590KV               MW     MVAR    1                 1
  TO LOAD-PQ                           6.1     1.6     6.3
  TO      6 BUS 6       13.800  1     -7.3    -2.3     7.7                           0.07    0.16    1                 1
  TO     13 BUS 13      13.800  1      1.2     0.7     1.4                           0.00    0.00    1                 1

 BUS     13 BUS 13      13.800 CKT     MW     MVAR     MVA   % 0.9806PU  -15.62  X--- LOSSES ---X X---- AREA -----X X---- ZONE -----X     13
                                                               13.533KV               MW     MVAR    1                 1
  TO LOAD-PQ                          13.5     5.8    14.7
  TO      6 BUS 6       13.800  1    -16.0    -6.3    17.2                           0.20    0.40    1                 1
  TO     12 BUS 12      13.800  1     -1.2    -0.7     1.4                           0.00    0.00    1                 1
  TO     14 BUS 14      13.800  1      3.8     1.2     3.9                           0.03    0.06    1                 1

 BUS     14 BUS 14      13.800 CKT     MW     MVAR     MVA   % 0.9699PU  -16.29  X--- LOSSES ---X X---- AREA -----X X---- ZONE -----X     14
                                                               13.384KV               MW     MVAR    1                 1
  TO LOAD-PQ                          14.9     5.0    15.7
  TO      9 BUS 9       13.800  1    -11.2    -3.9    11.8                           0.19    0.40    1                 1
  TO     13 BUS 13      13.800  1     -3.7    -1.1     3.9                           0.03    0.06    1                 1

 BUS     15 SOLAR       13.800 CKT     MW     MVAR     MVA   % 0.9967PU  -14.71  X--- LOSSES ---X X---- AREA -----X X---- ZONE -----X     15
  FROM GENERATION                     15.0    10.0H   18.0  90 13.755KV               MW     MVAR    1                 1
  TO      9 BUS 9       13.800  1     15.0    10.0    18.0                           0.00    0.03    1                 1
